Version 4
SHEET 1 1244 680
WIRE -128 -208 -144 -208
WIRE -32 -208 -48 -208
WIRE -144 -192 -144 -208
WIRE -48 -192 -48 -208
WIRE 496 -192 96 -192
WIRE 96 -128 96 -192
WIRE 240 -128 96 -128
WIRE 96 -80 96 -128
WIRE 240 0 240 -128
WIRE 400 0 240 0
WIRE 496 16 496 -192
WIRE 496 16 464 16
WIRE 528 16 496 16
WIRE -16 32 -64 32
WIRE 96 32 96 -16
WIRE 96 32 64 32
WIRE 128 32 96 32
WIRE 240 32 208 32
WIRE 400 32 240 32
WIRE 240 64 240 32
WIRE -64 80 -64 32
WIRE -64 176 -64 160
WIRE 240 176 240 128
FLAG -64 176 0
FLAG 240 176 0
FLAG 432 -16 VCC
FLAG 432 48 VEE
FLAG 528 16 OUT
IOPIN 528 16 Out
FLAG -64 32 IN
IOPIN -64 32 In
FLAG -144 -112 0
FLAG -48 -112 0
FLAG -144 -208 VCC
FLAG -48 -208 VEE
SYMBOL voltage -64 64 R0
WINDOW 123 24 124 Left 2
WINDOW 39 0 0 Left 2
SYMATTR Value2 AC 1
SYMATTR InstName V1
SYMATTR Value ""
SYMBOL Opamps\\UniversalOpamp2 432 16 R0
SYMATTR InstName U1
SYMBOL res 80 16 R90
WINDOW 0 0 56 VBottom 2
WINDOW 3 32 56 VTop 2
SYMATTR InstName R1
SYMATTR Value 10k
SYMBOL res 224 16 R90
WINDOW 0 0 56 VBottom 2
WINDOW 3 32 56 VTop 2
SYMATTR InstName R2
SYMATTR Value 10k
SYMBOL cap 80 -80 R0
SYMATTR InstName C1
SYMATTR Value 0.01uF
SYMBOL cap 224 64 R0
SYMATTR InstName C2
SYMATTR Value 0.01uF
SYMBOL voltage -144 -208 R0
SYMATTR InstName V2
SYMATTR Value 5V
SYMBOL voltage -48 -208 R0
SYMATTR InstName V3
SYMATTR Value -5V
TEXT 40 272 Left 2 !.ac oct 20 100 1Meg
